Circuit: *** SPICE deck for cell cla32{sch} from library cla64

Vgnd: both pins shorted together -- ignoring.
Ignoring BSIM parameter XL
Ignoring BSIM parameter XW
Ignoring BSIM parameter XL
Ignoring BSIM parameter XW
Warning: Pd = 0 is less than W.
Warning: Ps = 0 is less than W.
Warning: Pd = 0 is less than W.
Warning: Ps = 0 is less than W.
Early termination of direct N-R iteration.
Direct Newton iteration failed to find .op point.  (Use ".option noopiter" to skip.)
Starting Gmin stepping
Gmin = 10
Gmin = 1.07374
Gmin = 0.115292
Gmin = 0.0123794
Gmin = 0.00132923
Gmin = 0.000142725
Gmin = 1.5325e-005
Gmin = 1.6455e-006
Gmin = 1.76685e-007
Gmin = 1.89714e-008
Gmin = 2.03704e-009
Gmin = 2.18725e-010
Gmin = 2.34854e-011
Gmin = 2.52173e-012
Gmin = 2.70769e-013
Gmin = 0
Gmin stepping succeeded in finding the operating point.


tr0=1.00171e-010 FROM 2.50479e-007 TO 2.50579e-007
tr1=1.04992e-010 FROM 2.50491e-007 TO 2.50596e-007
tr2=9.79742e-011 FROM 2.50451e-007 TO 2.50549e-007
tr3=1.01327e-010 FROM 2.50401e-007 TO 2.50503e-007
tr4=9.95462e-011 FROM 2.50479e-007 TO 2.50578e-007
tr5=1.04999e-010 FROM 2.50491e-007 TO 2.50596e-007
tr6=9.79744e-011 FROM 2.50451e-007 TO 2.50549e-007
tr7=1.01328e-010 FROM 2.50401e-007 TO 2.50503e-007
tr8=9.95461e-011 FROM 2.50479e-007 TO 2.50578e-007
tr9=1.04999e-010 FROM 2.50491e-007 TO 2.50596e-007
tr10=9.79745e-011 FROM 2.50451e-007 TO 2.50549e-007
tr11=1.01328e-010 FROM 2.50401e-007 TO 2.50503e-007
tr12=9.95454e-011 FROM 2.50479e-007 TO 2.50578e-007
tr13=1.04999e-010 FROM 2.50491e-007 TO 2.50596e-007
tr14=9.79745e-011 FROM 2.50451e-007 TO 2.50549e-007
tr15=1.01328e-010 FROM 2.50401e-007 TO 2.50503e-007
tr16=9.90001e-011 FROM 2.50479e-007 TO 2.50578e-007
tr17=1.05e-010 FROM 2.50491e-007 TO 2.50596e-007
tr18=9.79745e-011 FROM 2.50451e-007 TO 2.50549e-007
tr19=1.01328e-010 FROM 2.50401e-007 TO 2.50503e-007
tr20=9.95574e-011 FROM 2.50479e-007 TO 2.50578e-007
tr21=1.04999e-010 FROM 2.50491e-007 TO 2.50596e-007
tr22=9.79744e-011 FROM 2.50451e-007 TO 2.50549e-007
tr23=1.01328e-010 FROM 2.50401e-007 TO 2.50503e-007
tr24=9.95461e-011 FROM 2.50479e-007 TO 2.50578e-007
tr25=1.04999e-010 FROM 2.50491e-007 TO 2.50596e-007
tr26=9.79745e-011 FROM 2.50451e-007 TO 2.50549e-007
tr27=1.01328e-010 FROM 2.50401e-007 TO 2.50503e-007
tr28=9.95454e-011 FROM 2.50479e-007 TO 2.50578e-007
tr29=1.04999e-010 FROM 2.50491e-007 TO 2.50596e-007
tr30=9.79745e-011 FROM 2.50451e-007 TO 2.50549e-007
tr31=1.01328e-010 FROM 2.50401e-007 TO 2.50503e-007
tf0=9.78075e-011 FROM 7.50524e-007 TO 7.50622e-007
tf1=1.01432e-010 FROM 7.50535e-007 TO 7.50637e-007
tf2=1.01114e-010 FROM 7.50498e-007 TO 7.50599e-007
tf3=9.89791e-011 FROM 7.50463e-007 TO 7.50562e-007
tf4=1.00288e-010 FROM 7.50523e-007 TO 7.50624e-007
tf5=1.01448e-010 FROM 7.50535e-007 TO 7.50637e-007
tf6=1.0111e-010 FROM 7.50498e-007 TO 7.50599e-007
tf7=9.89824e-011 FROM 7.50463e-007 TO 7.50562e-007
tf8=1.00293e-010 FROM 7.50523e-007 TO 7.50624e-007
tf9=1.0142e-010 FROM 7.50535e-007 TO 7.50637e-007
tf10=1.01117e-010 FROM 7.50498e-007 TO 7.50599e-007
tf11=9.89805e-011 FROM 7.50463e-007 TO 7.50562e-007
tf12=1.00208e-010 FROM 7.50523e-007 TO 7.50624e-007
tf13=1.0141e-010 FROM 7.50535e-007 TO 7.50637e-007
tf14=1.01113e-010 FROM 7.50498e-007 TO 7.50599e-007
tf15=9.89749e-011 FROM 7.50463e-007 TO 7.50562e-007
tf16=9.99185e-011 FROM 7.50523e-007 TO 7.50623e-007
tf17=1.01446e-010 FROM 7.50535e-007 TO 7.50637e-007
tf18=1.01114e-010 FROM 7.50498e-007 TO 7.50599e-007
tf19=9.89792e-011 FROM 7.50463e-007 TO 7.50562e-007
tf20=1.0029e-010 FROM 7.50523e-007 TO 7.50624e-007
tf21=1.01448e-010 FROM 7.50535e-007 TO 7.50637e-007
tf22=1.0111e-010 FROM 7.50498e-007 TO 7.50599e-007
tf23=9.89823e-011 FROM 7.50463e-007 TO 7.50562e-007
tf24=1.00291e-010 FROM 7.50523e-007 TO 7.50624e-007
tf25=1.01421e-010 FROM 7.50535e-007 TO 7.50637e-007
tf26=1.01117e-010 FROM 7.50498e-007 TO 7.50599e-007
tf27=9.89805e-011 FROM 7.50463e-007 TO 7.50562e-007
tf28=1.00205e-010 FROM 7.50523e-007 TO 7.50624e-007
tf29=1.01412e-010 FROM 7.50535e-007 TO 7.50637e-007
tf30=1.01113e-010 FROM 7.50498e-007 TO 7.50599e-007
tf31=9.89753e-011 FROM 7.50463e-007 TO 7.50562e-007
tplh0=4.69026e-010 FROM 2.5005e-007 TO 2.50519e-007
tplh1=4.84022e-010 FROM 2.5005e-007 TO 2.50534e-007
tplh2=4.40445e-010 FROM 2.5005e-007 TO 2.5049e-007
tplh3=3.93097e-010 FROM 2.5005e-007 TO 2.50443e-007
tplh4=4.68966e-010 FROM 2.5005e-007 TO 2.50519e-007
tplh5=4.84027e-010 FROM 2.5005e-007 TO 2.50534e-007
tplh6=4.40445e-010 FROM 2.5005e-007 TO 2.5049e-007
tplh7=3.93097e-010 FROM 2.5005e-007 TO 2.50443e-007
tplh8=4.68966e-010 FROM 2.5005e-007 TO 2.50519e-007
tplh9=4.84027e-010 FROM 2.5005e-007 TO 2.50534e-007
tplh10=4.40445e-010 FROM 2.5005e-007 TO 2.5049e-007
tplh11=3.93097e-010 FROM 2.5005e-007 TO 2.50443e-007
tplh12=4.68966e-010 FROM 2.5005e-007 TO 2.50519e-007
tplh13=4.84027e-010 FROM 2.5005e-007 TO 2.50534e-007
tplh14=4.40445e-010 FROM 2.5005e-007 TO 2.5049e-007
tplh15=3.93097e-010 FROM 2.5005e-007 TO 2.50443e-007
tplh16=4.68902e-010 FROM 2.5005e-007 TO 2.50519e-007
tplh17=4.84026e-010 FROM 2.5005e-007 TO 2.50534e-007
tplh18=4.40445e-010 FROM 2.5005e-007 TO 2.5049e-007
tplh19=3.93097e-010 FROM 2.5005e-007 TO 2.50443e-007
tplh20=4.68969e-010 FROM 2.5005e-007 TO 2.50519e-007
tplh21=4.84027e-010 FROM 2.5005e-007 TO 2.50534e-007
tplh22=4.40445e-010 FROM 2.5005e-007 TO 2.5049e-007
tplh23=3.93097e-010 FROM 2.5005e-007 TO 2.50443e-007
tplh24=4.68966e-010 FROM 2.5005e-007 TO 2.50519e-007
tplh25=4.84027e-010 FROM 2.5005e-007 TO 2.50534e-007
tplh26=4.40445e-010 FROM 2.5005e-007 TO 2.5049e-007
tplh27=3.93097e-010 FROM 2.5005e-007 TO 2.50443e-007
tplh28=4.68966e-010 FROM 2.5005e-007 TO 2.50519e-007
tplh29=4.84027e-010 FROM 2.5005e-007 TO 2.50534e-007
tplh30=4.40445e-010 FROM 2.5005e-007 TO 2.5049e-007
tplh31=3.93097e-010 FROM 2.5005e-007 TO 2.50443e-007
tphl0=4.27625e-010 FROM 7.5015e-007 TO 7.50578e-007
tphl1=4.38372e-010 FROM 7.5015e-007 TO 7.50588e-007
tphl2=4.03744e-010 FROM 7.5015e-007 TO 7.50554e-007
tphl3=3.67265e-010 FROM 7.5015e-007 TO 7.50517e-007
tphl4=4.2655e-010 FROM 7.5015e-007 TO 7.50577e-007
tphl5=4.38377e-010 FROM 7.5015e-007 TO 7.50588e-007
tphl6=4.03753e-010 FROM 7.5015e-007 TO 7.50554e-007
tphl7=3.67274e-010 FROM 7.5015e-007 TO 7.50517e-007
tphl8=4.26513e-010 FROM 7.5015e-007 TO 7.50577e-007
tphl9=4.38351e-010 FROM 7.5015e-007 TO 7.50588e-007
tphl10=4.03729e-010 FROM 7.5015e-007 TO 7.50554e-007
tphl11=3.67259e-010 FROM 7.5015e-007 TO 7.50517e-007
tphl12=4.2648e-010 FROM 7.5015e-007 TO 7.50576e-007
tphl13=4.38322e-010 FROM 7.5015e-007 TO 7.50588e-007
tphl14=4.03686e-010 FROM 7.5015e-007 TO 7.50554e-007
tphl15=3.67237e-010 FROM 7.5015e-007 TO 7.50517e-007
tphl16=4.26886e-010 FROM 7.5015e-007 TO 7.50577e-007
tphl17=4.3837e-010 FROM 7.5015e-007 TO 7.50588e-007
tphl18=4.03744e-010 FROM 7.5015e-007 TO 7.50554e-007
tphl19=3.67265e-010 FROM 7.5015e-007 TO 7.50517e-007
tphl20=4.26548e-010 FROM 7.5015e-007 TO 7.50577e-007
tphl21=4.38378e-010 FROM 7.5015e-007 TO 7.50588e-007
tphl22=4.03753e-010 FROM 7.5015e-007 TO 7.50554e-007
tphl23=3.67274e-010 FROM 7.5015e-007 TO 7.50517e-007
tphl24=4.26513e-010 FROM 7.5015e-007 TO 7.50577e-007
tphl25=4.38351e-010 FROM 7.5015e-007 TO 7.50588e-007
tphl26=4.03729e-010 FROM 7.5015e-007 TO 7.50554e-007
tphl27=3.6726e-010 FROM 7.5015e-007 TO 7.50517e-007
tphl28=4.2648e-010 FROM 7.5015e-007 TO 7.50576e-007
tphl29=4.38322e-010 FROM 7.5015e-007 TO 7.50588e-007
tphl30=4.03686e-010 FROM 7.5015e-007 TO 7.50554e-007
tphl31=3.67238e-010 FROM 7.5015e-007 TO 7.50517e-007


Date: Fri Dec 06 14:26:28 2019
Total elapsed time: 4.796 seconds.

tnom = 27
temp = 27
method = modified trap
totiter = 3800
traniter = 3420
tranpoints = 1200
accept = 1157
rejected = 43
matrix size = 1113
fillins = 2286
solver = Normal
Thread vector: 1882.6/1048.6[4] 570.5/306.8[4] 220.1/126.0[4] 12.3/8.8[3]  2592/500
Matrix Compiler1: 319 KB object code size  122.6/51.7/[50.2]
Matrix Compiler2: 182 KB object code size  39.6/22.8/[22.4]


